Circuit: * C:\Users\rashi\eln1-project-2020-rs-team\LTspice\Test-RprCpr.asc

Direct Newton iteration failed to find .op point.  (Use ".option noopiter" to skip.)
Starting Gmin stepping
Gmin = 10
Gmin = 1.07374
vernier = 0.5
vernier = 0.25
vernier = 0.125
vernier = 0.0625
Gmin = 0.995033
vernier = 0.03125
vernier = 0.015625
vernier = 0.0078125
vernier = 0.00390625
Gmin = 0.999816
vernier = 0.00195313
vernier = 0.000976563
vernier = 0.000488281
Gmin = 0
Gmin stepping succeeded in finding the operating point.


Date: Thu Apr 23 09:44:23 2020
Total elapsed time: 13.988 seconds.

tnom = 27
temp = 27
method = modified trap
totiter = 229883
traniter = 228516
tranpoints = 114259
accept = 113329
rejected = 930
matrix size = 33
fillins = 6
solver = Normal
Matrix Compiler1: 1.71 KB object code size  0.5/0.3/[0.2]
Matrix Compiler2: off  [0.4]/0.5/0.4

