Circuit: * C:\Users\rashi\eln1-project-2020-rs-team\LTspice\Test-RprCpr.asc

WARNING: Less than two connections to node VCC.  This node is used by V2.
WARNING: Less than two connections to node VEE.  This node is used by V3.
Direct Newton iteration for .op point succeeded.

Date: Thu Apr 02 13:03:28 2020
Total elapsed time: 1.241 seconds.

tnom = 27
temp = 27
method = modified trap
totiter = 50797
traniter = 50794
tranpoints = 25398
accept = 24428
rejected = 970
matrix size = 49
fillins = 0
solver = Normal
Matrix Compiler1: 1018 bytes object code size  0.3/0.2/[0.1]
Matrix Compiler2: 2.64 KB object code size  0.3/0.5/[0.2]

